REMARK  3 active torsions:
REMARK  status: ('A' for Active; 'I' for Inactive)
REMARK    1  A    between atoms: C_7  and  C_6 
REMARK    2  A    between atoms: C_7  and  C_8 
REMARK    3  A    between atoms: C_8  and  N_11 
ROOT
ATOM      1  C   UNL     1       0.447  -0.004  -1.084  0.00  0.00     0.054 C 
ENDROOT
BRANCH   1   2
ATOM      2  C   UNL     1      -0.982  -0.003  -0.591  0.00  0.00    -0.020 A 
ATOM      3  C   UNL     1      -1.623   1.205  -0.372  0.00  0.00    -0.004 A 
ATOM      4  C   UNL     1      -2.941   1.205   0.082  0.00  0.00    -0.000 A 
ATOM      5  C   UNL     1      -3.601  -0.003   0.310  0.00  0.00     0.000 A 
ATOM      6  C   UNL     1      -2.941  -1.211   0.084  0.00  0.00    -0.000 A 
ATOM      7  C   UNL     1      -1.622  -1.211  -0.370  0.00  0.00    -0.004 A 
ENDBRANCH   1   2
BRANCH   1   8
ATOM      8  C   UNL     1       1.551  -0.002   0.007  0.00  0.00     0.158 C 
ATOM      9  C   UNL     1       1.466   1.229   0.920  0.00  0.00     0.030 C 
ATOM     10  C   UNL     1       1.534  -1.281   0.855  0.00  0.00     0.030 C 
BRANCH   8  11
ATOM     11  N   UNL     1       2.856   0.050  -0.674  0.00  0.00    -0.068 N 
ATOM     12  H   UNL     1       2.906   0.891  -1.250  0.00  0.00     0.275 HD
ATOM     13  H   UNL     1       2.965  -0.774  -1.265  0.00  0.00     0.275 HD
ATOM     14  H   UNL     1       3.602   0.071   0.022  0.00  0.00     0.275 HD
ENDBRANCH   8  11
ENDBRANCH   1   8
TORSDOF 3
