REMARK  3 active torsions:
REMARK  status: ('A' for Active; 'I' for Inactive)
REMARK    1  A    between atoms: N_2  and  C_3 
REMARK    2  A    between atoms: N_2  and  N_1 
REMARK    3  A    between atoms: C_3  and  C_4 
ROOT
ATOM      1  N   UNL     1       2.152   0.751  -0.234  0.00  0.00    -0.290 N 
ATOM      2  H   UNL     1       1.743   1.613  -0.476  0.00  0.00     0.183 HD
ENDROOT
BRANCH   1   3
ATOM      3  C   UNL     1       1.343  -0.339   0.097  0.00  0.00     0.267 C 
ATOM      4  O   UNL     1       1.807  -1.451   0.410  0.00  0.00    -0.266 OA
BRANCH   3   5
ATOM      5  C   UNL     1      -0.094  -0.130   0.043  0.00  0.00     0.060 A 
ATOM      6  C   UNL     1      -0.947  -1.201  -0.201  0.00  0.00     0.025 A 
ATOM      7  C   UNL     1      -2.309  -0.950  -0.241  0.00  0.00     0.099 A 
ATOM      8  N   UNL     1      -2.859   0.272  -0.059  0.00  0.00    -0.242 NA
ATOM      9  C   UNL     1      -1.999   1.288   0.174  0.00  0.00     0.099 A 
ATOM     10  C   UNL     1      -0.623   1.142   0.234  0.00  0.00     0.025 A 
ENDBRANCH   3   5
ENDBRANCH   1   3
BRANCH   1  11
ATOM     11  N   UNL     1       3.528   0.619  -0.222  0.00  0.00    -0.247 NA
ATOM     12  H   UNL     1       3.957   1.505  -0.487  0.00  0.00     0.143 HD
ATOM     13  H   UNL     1       3.805  -0.105  -0.886  0.00  0.00     0.143 HD
ENDBRANCH   1  11
TORSDOF 2
