REMARK  3 active torsions:
REMARK  status: ('A' for Active; 'I' for Inactive)
REMARK    1  A    between atoms: C_4  and  N_3 
REMARK    2  A    between atoms: C_9  and  O_1 
REMARK    3  A    between atoms: N_3  and  C_10 
ROOT
ATOM      1  C   UNL     1       0.088  -0.274   0.000  0.00  0.00     0.059 A 
ATOM      2  C   UNL     1       0.515   1.054   0.000  0.00  0.00     0.019 A 
ATOM      3  C   UNL     1       1.025  -1.308  -0.001  0.00  0.00     0.019 A 
ATOM      4  C   UNL     1       1.879   1.348   0.000  0.00  0.00     0.025 A 
ATOM      5  C   UNL     1       2.388  -1.014  -0.001  0.00  0.00     0.025 A 
ATOM      6  C   UNL     1       2.815   0.314   0.000  0.00  0.00     0.090 A 
ENDROOT
BRANCH   1   7
ATOM      7  N   UNL     1      -1.276  -0.568   0.000  0.00  0.00    -0.325 N 
ATOM      8  H   UNL     1      -1.510  -1.524   0.000  0.00  0.00     0.169 HD
BRANCH   7   9
ATOM      9  C   UNL     1      -2.354   0.327   0.001  0.00  0.00     0.235 C 
ATOM     10  C   UNL     1      -3.679  -0.393   0.001  0.00  0.00     0.098 C 
ATOM     11  O   UNL     1      -2.305   1.553  -0.002  0.00  0.00    -0.272 OA
ENDBRANCH   7   9
ENDBRANCH   1   7
BRANCH   6  12
ATOM     12  O   UNL     1       4.146   0.601   0.001  0.00  0.00    -0.359 OA
ATOM     13  H   UNL     1       4.433   1.493   0.001  0.00  0.00     0.218 HD
ENDBRANCH   6  12
TORSDOF 2
