REMARK  8 active torsions:
REMARK  status: ('A' for Active; 'I' for Inactive)
REMARK    1  A    between atoms: N_2  and  C_5 
REMARK    2  A    between atoms: N_2  and  C_6 
REMARK    3  A    between atoms: N_2  and  C_7 
REMARK    4  A    between atoms: N_3  and  C_8 
REMARK    5  A    between atoms: N_3  and  C_11 
REMARK    6  A    between atoms: N_4  and  C_17 
REMARK    7  A    between atoms: C_5  and  C_8 
REMARK    8  A    between atoms: C_11  and  C_12 
ROOT
ATOM      1  O   UNL d   1       0.323  -1.040   1.585  0.00  0.00    -0.270 OA
ATOM      2  C   UNL d   1       0.648  -0.153   0.800  0.00  0.00     0.244 C 
ENDROOT
BRANCH   2   3
ATOM      3  N   UNL d   1      -0.241   0.786   0.273  0.00  0.00    -0.310 N 
ATOM      4  H   UNL d   1       0.090   1.526  -0.336  0.00  0.00     0.149 HD
BRANCH   3   5
ATOM      5  C   UNL d   1      -1.661   0.804   0.609  0.00  0.00     0.120 C 
BRANCH   5   6
ATOM      6  C   UNL d   1      -2.445  -0.064  -0.370  0.00  0.00     0.103 C 
BRANCH   6   7
ATOM      7  N   UNL d   1      -3.865  -0.060  -0.023  0.00  0.00    -0.301 N 
BRANCH   7   8
ATOM      8  C   UNL d   1      -4.617  -0.920  -0.936  0.00  0.00     0.081 C 
ATOM      9  C   UNL d   1      -4.080  -2.341  -0.919  0.00  0.00     0.020 C 
ENDBRANCH   7   8
BRANCH   7  10
ATOM     10  C   UNL d   1      -4.395   1.303  -0.051  0.00  0.00     0.081 C 
ATOM     11  C   UNL d   1      -5.855   1.334   0.367  0.00  0.00     0.020 C 
ENDBRANCH   7  10
ENDBRANCH   6   7
ENDBRANCH   5   6
ENDBRANCH   3   5
ENDBRANCH   2   3
BRANCH   2  12
ATOM     12  C   UNL d   1       2.059  -0.060   0.348  0.00  0.00     0.037 A 
ATOM     13  C   UNL d   1       3.058  -0.524   1.180  0.00  0.00     0.015 A 
ATOM     14  C   UNL d   1       4.384  -0.437   0.755  0.00  0.00     0.023 A 
ATOM     15  C   UNL d   1       4.682   0.112  -0.492  0.00  0.00     0.025 A 
ATOM     16  C   UNL d   1       3.655   0.574  -1.314  0.00  0.00     0.023 A 
ATOM     17  C   UNL d   1       2.329   0.487  -0.890  0.00  0.00     0.015 A 
BRANCH  15  18
ATOM     18  N   UNL d   1       6.022   0.198  -0.922  0.00  0.00    -0.358 N 
ATOM     19  H   UNL d   1       6.239   0.598  -1.826  0.00  0.00     0.142 HD
ATOM     20  H   UNL d   1       6.768  -0.135  -0.326  0.00  0.00     0.142 HD
ENDBRANCH  15  18
ENDBRANCH   2  12
TORSDOF 7
