REMARK  5 active torsions:
REMARK  status: ('A' for Active; 'I' for Inactive)
REMARK    1  A    between atoms: N_3  and  C_9 
REMARK    2  A    between atoms: N_3  and  C_13 
REMARK    3  A    between atoms: N_4  and  C_13 
REMARK    4  A    between atoms: C_5  and  C_6 
REMARK    5  A    between atoms: C_5  and  C_9 
ROOT
ATOM      1  O   UNL d   1       1.082  -1.584   0.423  0.00  0.00    -0.275 OA
ATOM      2  C   UNL d   1       1.086  -0.630  -0.350  0.00  0.00     0.225 C 
ENDROOT
BRANCH   2   3
ATOM      3  N   UNL d   1       2.125   0.294  -0.482  0.00  0.00    -0.240 N 
ATOM      4  H   UNL d   1       2.021   1.050  -1.153  0.00  0.00     0.159 HD
BRANCH   3   5
ATOM      5  C   UNL d   1       3.319   0.275   0.246  0.00  0.00     0.303 C 
ATOM      6  O   UNL d   1       3.617  -0.558   1.100  0.00  0.00    -0.253 OA
BRANCH   5   7
ATOM      7  N   UNL d   1       4.152   1.322  -0.108  0.00  0.00    -0.313 N 
ATOM      8  H   UNL d   1       3.887   1.999  -0.816  0.00  0.00     0.146 HD
ATOM      9  H   UNL d   1       5.057   1.444   0.333  0.00  0.00     0.146 HD
ENDBRANCH   5   7
ENDBRANCH   3   5
ENDBRANCH   2   3
BRANCH   2  10
ATOM     10  C   UNL d   1      -0.060  -0.309  -1.290  0.00  0.00     0.131 C 
BRANCH  10  11
ATOM     11  C   UNL d   1      -1.360  -0.044  -0.578  0.00  0.00    -0.039 A 
ATOM     12  C   UNL d   1      -2.224  -1.099  -0.320  0.00  0.00     0.004 A 
ATOM     13  C   UNL d   1      -3.428  -0.854   0.340  0.00  0.00     0.000 A 
ATOM     14  C   UNL d   1      -3.755   0.443   0.736  0.00  0.00     0.000 A 
ATOM     15  C   UNL d   1      -2.878   1.495   0.472  0.00  0.00     0.000 A 
ATOM     16  C   UNL d   1      -1.674   1.250  -0.189  0.00  0.00     0.004 A 
ENDBRANCH  10  11
ENDBRANCH   2  10
TORSDOF 2
