REMARK  17 active torsions:
REMARK  status: ('A' for Active; 'I' for Inactive)
REMARK    1  A    between atoms: C_3  and  C_4 
REMARK    2  A    between atoms: C_4  and  N_5 
REMARK    3  A    between atoms: N_5  and  C_6 
REMARK    4  A    between atoms: N_5  and  C_29 
REMARK    5  A    between atoms: N_5  and  C_31 
REMARK    6  A    between atoms: C_6  and  C_7 
REMARK    7  A    between atoms: C_7  and  N_8 
REMARK    8  A    between atoms: N_8  and  C_9 
REMARK    9  A    between atoms: C_9  and  C_10 
REMARK   10  A    between atoms: C_10  and  N_11 
REMARK   11  A    between atoms: N_11  and  C_12 
REMARK   12  A    between atoms: C_12  and  C_13 
REMARK   13  A    between atoms: C_13  and  N_14 
REMARK   14  A    between atoms: N_14  and  C_15 
REMARK   15  A    between atoms: N_14  and  C_23 
REMARK   16  A    between atoms: N_14  and  C_25 
REMARK   17  A    between atoms: C_15  and  C_16 
ROOT
HETATM    1  C   UNK     0       9.575  -2.011   0.219  0.00  0.00     0.001 A 
HETATM    2  C   UNK     0       8.357  -1.756  -0.382  0.00  0.00     0.010 A 
HETATM    3  C   UNK     0       7.904  -0.455  -0.503  0.00  0.00    -0.011 A 
HETATM    4  C   UNK     0       8.671   0.591  -0.022  0.00  0.00     0.042 A 
HETATM    5 Cl   UNK     0       8.104   2.224  -0.173  0.00  0.00    -0.084 Cl
HETATM    6  C   UNK     0       9.891   0.335   0.580  0.00  0.00     0.024 A 
HETATM    7  C   UNK     0      10.342  -0.966   0.700  0.00  0.00     0.002 A 
ENDROOT
BRANCH   3   8
HETATM    8  C   UNK     0       6.576  -0.177  -1.158  0.00  0.00     0.277 C 
BRANCH   8   9
HETATM    9  N   UNK     0       5.514  -0.209  -0.144  0.00  0.00    -0.062 N 
BRANCH   9  10
HETATM   10  C   UNK     0       4.205  -0.106  -0.802  0.00  0.00     0.257 C 
BRANCH  10  11
HETATM   11  C   UNK     0       3.098  -0.140   0.254  0.00  0.00     0.151 C 
BRANCH  11  12
HETATM   12  N   UNK     0       1.793  -0.038  -0.403  0.00  0.00    -0.351 N 
HETATM   13  H   UNK     0       1.740   0.036  -1.368  0.00  0.00     0.162 HD
BRANCH  12  14
HETATM   14  C   UNK     0       0.665  -0.046   0.335  0.00  0.00     0.309 C 
HETATM   15  O   UNK     0       0.731  -0.139   1.543  0.00  0.00    -0.262 OA
BRANCH  14  16
HETATM   16  C   UNK     0      -0.667   0.058  -0.335  0.00  0.00     0.309 C 
HETATM   17  O   UNK     0      -0.733   0.150  -1.543  0.00  0.00    -0.262 OA
BRANCH  16  18
HETATM   18  N   UNK     0      -1.795   0.049   0.403  0.00  0.00    -0.351 N 
HETATM   19  H   UNK     0      -1.742  -0.025   1.368  0.00  0.00     0.162 HD
BRANCH  18  20
HETATM   20  C   UNK     0      -3.101   0.151  -0.254  0.00  0.00     0.151 C 
BRANCH  20  21
HETATM   21  C   UNK     0      -4.207   0.118   0.802  0.00  0.00     0.257 C 
BRANCH  21  22
HETATM   22  N   UNK     0      -5.516   0.220   0.143  0.00  0.00    -0.062 N 
BRANCH  22  23
HETATM   23  C   UNK     0      -6.578   0.188   1.158  0.00  0.00     0.277 C 
BRANCH  23  24
HETATM   24  C   UNK     0      -7.909   0.451   0.500  0.00  0.00    -0.011 A 
HETATM   25  C   UNK     0      -8.664  -0.605   0.023  0.00  0.00     0.042 A 
HETATM   26 Cl   UNK     0      -8.081  -2.233   0.182  0.00  0.00    -0.084 Cl
HETATM   27  C   UNK     0      -9.886  -0.364  -0.580  0.00  0.00     0.024 A 
HETATM   28  C   UNK     0     -10.350   0.932  -0.706  0.00  0.00     0.002 A 
HETATM   29  C   UNK     0      -9.594   1.987  -0.229  0.00  0.00     0.001 A 
HETATM   30  C   UNK     0      -8.376   1.746   0.379  0.00  0.00     0.010 A 
ENDBRANCH  23  24
ENDBRANCH  22  23
BRANCH  22  31
HETATM   31  C   UNK     0      -5.590   1.482  -0.604  0.00  0.00     0.233 C 
HETATM   32  C   UNK     0      -5.411   2.657   0.359  0.00  0.00     0.035 C 
ENDBRANCH  22  31
BRANCH  22  33
HETATM   33  C   UNK     0      -5.688  -0.908  -0.782  0.00  0.00     0.233 C 
HETATM   34  C   UNK     0      -5.428  -2.220  -0.039  0.00  0.00     0.035 C 
ENDBRANCH  22  33
ENDBRANCH  21  22
ENDBRANCH  20  21
ENDBRANCH  18  20
ENDBRANCH  16  18
ENDBRANCH  14  16
ENDBRANCH  12  14
ENDBRANCH  11  12
ENDBRANCH  10  11
ENDBRANCH   9  10
BRANCH   9  35
HETATM   35  C   UNK     0       5.588  -1.471   0.604  0.00  0.00     0.233 C 
HETATM   36  C   UNK     0       5.409  -2.646  -0.359  0.00  0.00     0.035 C 
ENDBRANCH   9  35
BRANCH   9  37
HETATM   37  C   UNK     0       5.686   0.919   0.782  0.00  0.00     0.233 C 
HETATM   38  C   UNK     0       5.431   2.232   0.038  0.00  0.00     0.035 C 
ENDBRANCH   9  37
ENDBRANCH   8   9
ENDBRANCH   3   8
TORSDOF 15
