REMARK  4 active torsions:
REMARK  status: ('A' for Active; 'I' for Inactive)
REMARK    1  A    between atoms: C_2  and  N_1 
REMARK    2  A    between atoms: C_2  and  C_3 
REMARK    3  A    between atoms: N_1  and  C_4 
ROOT
ATOM      1  C   UNL     1      -0.286  -0.338   1.122  0.00  0.00     0.241 C 
ENDROOT
BRANCH   1   2
ATOM      2  N   UNL     1      -1.358  -0.110   0.154  0.00  0.00    -0.008 N 
ATOM      3  H   UNL     1      -1.253  -0.779  -0.608  0.00  0.00     0.285 HD
ATOM      4  C   UNL     1      -1.269   1.241  -0.399  0.00  0.00     0.247 C 
BRANCH   2   5
ATOM      5  C   UNL     1      -2.664  -0.322   0.778  0.00  0.00     0.290 C 
BRANCH   5   6
ATOM      6  C   UNL     1      -3.744  -0.153  -0.199  0.00  0.00    -0.045 C 
ATOM      7  C   UNL     1      -4.633  -0.017  -0.995  0.00  0.00    -0.012 C 
ENDBRANCH   5   6
ENDBRANCH   2   5
ENDBRANCH   1   2
BRANCH   1   8
ATOM      8  C   UNL     1       1.075  -0.188   0.497  0.00  0.00     0.008 A 
ATOM      9  C   UNL     1       1.692   1.056   0.492  0.00  0.00    -0.002 A 
ATOM     10  C   UNL     1       2.953   1.195  -0.087  0.00  0.00    -0.000 A 
ATOM     11  C   UNL     1       3.585   0.089  -0.655  0.00  0.00     0.000 A 
ATOM     12  C   UNL     1       2.956  -1.156  -0.645  0.00  0.00    -0.000 A 
ATOM     13  C   UNL     1       1.695  -1.295  -0.066  0.00  0.00    -0.002 A 
ENDBRANCH   1   8
TORSDOF 3
