REMARK  9 active torsions:
REMARK  status: ('A' for Active; 'I' for Inactive)
REMARK    1  A    between atoms: N_10  and  C_11 
REMARK    2  A    between atoms: N_10  and  C_9 
REMARK    3  A    between atoms: N_10  and  C_12 
REMARK    4  A    between atoms: C_9  and  C_8 
REMARK    5  A    between atoms: C_8  and  C_6 
REMARK    6  A    between atoms: C_6  and  C_3 
REMARK    7  A    between atoms: C_11  and  C_13 
REMARK    8  A    between atoms: C_13  and  C_15 
REMARK    9  A    between atoms: C_15  and  C_16 
ROOT
ATOM      1  N   UNL     1       0.009   2.214  -0.274  0.00  0.00    -0.026 N 
ATOM      2  H   UNL     1       0.031   1.592   0.535  0.00  0.00     0.283 HD
ENDROOT
BRANCH   1   3
ATOM      3  C   UNL     1      -1.341   2.766  -0.399  0.00  0.00     0.214 C 
BRANCH   3   4
ATOM      4  C   UNL     1      -2.355   1.645  -0.621  0.00  0.00     0.037 C 
BRANCH   4   5
ATOM      5  C   UNL     1      -2.334   0.645   0.539  0.00  0.00     0.028 C 
BRANCH   5   6
ATOM      6  C   UNL     1      -3.356  -0.447   0.352  0.00  0.00    -0.022 A 
ATOM      7  C   UNL     1      -2.999  -1.606  -0.321  0.00  0.00    -0.004 A 
ATOM      8  C   UNL     1      -3.945  -2.617  -0.494  0.00  0.00    -0.000 A 
ATOM      9  C   UNL     1      -5.236  -2.457   0.008  0.00  0.00     0.000 A 
ATOM     10  C   UNL     1      -5.582  -1.286   0.683  0.00  0.00    -0.000 A 
ATOM     11  C   UNL     1      -4.637  -0.275   0.856  0.00  0.00    -0.004 A 
ENDBRANCH   5   6
ENDBRANCH   4   5
ENDBRANCH   3   4
ENDBRANCH   1   3
BRANCH   1  12
ATOM     12  C   UNL     1       0.356   1.435  -1.456  0.00  0.00     0.214 C 
BRANCH  12  13
ATOM     13  C   UNL     1       1.741   0.810  -1.292  0.00  0.00     0.037 C 
BRANCH  13  14
ATOM     14  C   UNL     1       1.792  -0.103  -0.065  0.00  0.00     0.028 C 
BRANCH  14  15
ATOM     15  C   UNL     1       3.142  -0.755   0.089  0.00  0.00    -0.022 A 
ATOM     16  C   UNL     1       3.380  -1.980  -0.518  0.00  0.00    -0.004 A 
ATOM     17  C   UNL     1       4.630  -2.584  -0.376  0.00  0.00    -0.000 A 
ATOM     18  C   UNL     1       5.627  -1.957   0.371  0.00  0.00     0.000 A 
ATOM     19  C   UNL     1       5.375  -0.725   0.976  0.00  0.00    -0.000 A 
ATOM     20  C   UNL     1       4.125  -0.121   0.834  0.00  0.00    -0.004 A 
ENDBRANCH  14  15
ENDBRANCH  13  14
ENDBRANCH  12  13
ENDBRANCH   1  12
BRANCH   1  21
ATOM     21  C   UNL     1       0.979   3.289  -0.061  0.00  0.00     0.213 C 
ATOM     22  C   UNL     1       0.629   4.109   1.169  0.00  0.00     0.034 C 
ENDBRANCH   1  21
TORSDOF 9
