REMARK  3 active torsions:
REMARK  status: ('A' for Active; 'I' for Inactive)
REMARK    1  A    between atoms: C_2  and  C_3 
REMARK    2  A    between atoms: C_2  and  N_1 
REMARK    3  A    between atoms: C_3  and  C_6 
ROOT
ATOM      1  C   UNL     1       1.212  -0.332   0.208  0.00  0.00     0.161 C 
ATOM      2  C   UNL     1       1.155   0.657   1.380  0.00  0.00     0.030 C 
ATOM      3  C   UNL     1       1.018  -1.764   0.727  0.00  0.00     0.030 C 
ENDROOT
BRANCH   1   4
ATOM      4  C   UNL     1       0.206   0.028  -0.917  0.00  0.00     0.055 C 
BRANCH   4   5
ATOM      5  C   UNL     1      -1.254   0.059  -0.526  0.00  0.00    -0.020 A 
ATOM      6  C   UNL     1      -1.808   1.243  -0.066  0.00  0.00    -0.004 A 
ATOM      7  C   UNL     1      -3.155   1.271   0.295  0.00  0.00    -0.000 A 
ATOM      8  C   UNL     1      -3.929   0.115   0.191  0.00  0.00     0.000 A 
ATOM      9  C   UNL     1      -3.356  -1.069  -0.274  0.00  0.00    -0.000 A 
ATOM     10  C   UNL     1      -2.009  -1.097  -0.635  0.00  0.00    -0.004 A 
ENDBRANCH   4   5
ENDBRANCH   1   4
BRANCH   1  11
ATOM     11  N   UNL     1       2.569  -0.256  -0.361  0.00  0.00    -0.046 N 
ATOM     12  H   UNL     1       3.245  -0.509   0.360  0.00  0.00     0.279 HD
ATOM     13  H   UNL     1       2.640  -0.900  -1.148  0.00  0.00     0.279 HD
ATOM     14  C   UNL     1       2.849   1.092  -0.818  0.00  0.00     0.241 C 
ENDBRANCH   1  11
TORSDOF 3
