REMARK  11 active torsions:
REMARK  status: ('A' for Active; 'I' for Inactive)
REMARK    1  A    between atoms: C_8  and  C_10 
REMARK    2  A    between atoms: C_8  and  C_6 
REMARK    3  A    between atoms: C_6  and  C_7 
REMARK    4  A    between atoms: C_7  and  C_9 
REMARK    5  A    between atoms: C_9  and  C_11 
REMARK    6  A    between atoms: C_11  and  C_13 
REMARK    7  A    between atoms: N_5  and  C_13 
REMARK    8  A    between atoms: N_5  and  O_3 
REMARK    9  A    between atoms: C_10  and  C_12 
REMARK   10  A    between atoms: N_4  and  C_14 
REMARK   11  A    between atoms: N_4  and  C_12 
ROOT
ATOM      1  C   UNL     1       0.176   0.508  -0.186  0.00  0.00     0.010 C 
ENDROOT
BRANCH   1   2
ATOM      2  C   UNL     1      -1.029  -0.424  -0.307  0.00  0.00     0.088 C 
BRANCH   2   3
ATOM      3  C   UNL     1      -2.369   0.267  -0.089  0.00  0.00     0.234 C 
ATOM      4  O   UNL     1      -2.450   1.461   0.181  0.00  0.00    -0.272 OA
BRANCH   3   5
ATOM      5  N   UNL     1      -3.415  -0.643  -0.214  0.00  0.00    -0.325 N 
ATOM      6  H   UNL     1      -3.161  -1.572  -0.418  0.00  0.00     0.169 HD
BRANCH   5   7
ATOM      7  C   UNL     1      -4.800  -0.388  -0.082  0.00  0.00     0.059 A 
ATOM      8  C   UNL     1      -5.249   0.902   0.202  0.00  0.00     0.017 A 
ATOM      9  C   UNL     1      -6.614   1.153   0.333  0.00  0.00     0.002 A 
ATOM     10  C   UNL     1      -7.532   0.114   0.179  0.00  0.00     0.000 A 
ATOM     11  C   UNL     1      -7.084  -1.176  -0.105  0.00  0.00     0.002 A 
ATOM     12  C   UNL     1      -5.718  -1.427  -0.235  0.00  0.00     0.017 A 
ENDBRANCH   5   7
ENDBRANCH   3   5
ENDBRANCH   2   3
ENDBRANCH   1   2
BRANCH   1  13
ATOM     13  C   UNL     1       1.507  -0.236  -0.338  0.00  0.00     0.001 C 
BRANCH  13  14
ATOM     14  C   UNL     1       2.695   0.715  -0.177  0.00  0.00     0.001 C 
BRANCH  14  15
ATOM     15  C   UNL     1       4.025  -0.033  -0.298  0.00  0.00     0.010 C 
BRANCH  15  16
ATOM     16  C   UNL     1       5.231   0.886  -0.112  0.00  0.00     0.090 C 
BRANCH  16  17
ATOM     17  C   UNL     1       6.549   0.146  -0.215  0.00  0.00     0.253 C 
ATOM     18  O   UNL     1       7.129   0.008  -1.290  0.00  0.00    -0.270 OA
BRANCH  17  19
ATOM     19  N   UNL     1       6.989  -0.334   0.993  0.00  0.00    -0.237 N 
ATOM     20  H   UNL     1       6.483  -0.194   1.826  0.00  0.00     0.197 HD
BRANCH  19  21
ATOM     21  O   UNL     1       8.202  -1.034   0.968  0.00  0.00    -0.287 OA
ATOM     22  H   UNL     1       8.423  -1.329   1.866  0.00  0.00     0.244 HD
ENDBRANCH  19  21
ENDBRANCH  17  19
ENDBRANCH  16  17
ENDBRANCH  15  16
ENDBRANCH  14  15
ENDBRANCH  13  14
ENDBRANCH   1  13
TORSDOF 9
