REMARK  8 active torsions:
REMARK  status: ('A' for Active; 'I' for Inactive)
REMARK    1  A    between atoms: O_1  and  C_7 
REMARK    2  A    between atoms: N_4  and  C_8 
REMARK    3  A    between atoms: N_4  and  C_9 
REMARK    4  A    between atoms: N_5  and  C_6 
REMARK    5  A    between atoms: N_5  and  C_11 
REMARK    6  A    between atoms: C_6  and  C_7 
REMARK    7  A    between atoms: C_6  and  C_8 
REMARK    8  A    between atoms: C_9  and  C_10 
ROOT
ATOM      1  O   UNL d   1      -1.329   2.107  -0.212  0.00  0.00    -0.381 OA
ATOM      2  C   UNL d   1      -1.129   3.455   0.188  0.00  0.00     0.194 C 
ENDROOT
BRANCH   1   3
ATOM      3  C   UNL d   1      -1.557   1.260   0.909  0.00  0.00     0.191 C 
BRANCH   3   4
ATOM      4  C   UNL d   1      -1.806  -0.172   0.447  0.00  0.00     0.185 C 
BRANCH   4   5
ATOM      5  N   UNL d   1      -2.979  -0.271  -0.382  0.00  0.00    -0.302 N 
ATOM      6  H   UNL d   1      -2.869  -0.131  -1.383  0.00  0.00     0.149 HD
BRANCH   5   7
ATOM      7  C   UNL d   1      -4.251  -0.503   0.121  0.00  0.00     0.211 C 
ATOM      8  O   UNL d   1      -4.537  -0.652   1.306  0.00  0.00    -0.276 OA
ATOM      9  C   UNL d   1      -5.299  -0.534  -0.959  0.00  0.00     0.109 C 
ENDBRANCH   5   7
ENDBRANCH   4   5
BRANCH   4  10
ATOM     10  C   UNL d   1      -0.622  -0.733  -0.335  0.00  0.00     0.236 C 
ATOM     11  O   UNL d   1      -0.502  -0.606  -1.551  0.00  0.00    -0.274 OA
BRANCH  10  12
ATOM     12  N   UNL d   1       0.303  -1.353   0.493  0.00  0.00    -0.310 N 
ATOM     13  H   UNL d   1       0.138  -1.382   1.495  0.00  0.00     0.149 HD
BRANCH  12  14
ATOM     14  C   UNL d   1       1.534  -1.927  -0.001  0.00  0.00     0.139 C 
BRANCH  14  15
ATOM     15  C   UNL d   1       2.657  -0.931  -0.003  0.00  0.00    -0.030 A 
ATOM     16  C   UNL d   1       2.877  -0.143  -1.126  0.00  0.00     0.005 A 
ATOM     17  C   UNL d   1       3.921   0.781  -1.128  0.00  0.00     0.000 A 
ATOM     18  C   UNL d   1       4.739   0.912  -0.006  0.00  0.00     0.000 A 
ATOM     19  C   UNL d   1       4.512   0.117   1.119  0.00  0.00     0.000 A 
ATOM     20  C   UNL d   1       3.468  -0.808   1.120  0.00  0.00     0.005 A 
ENDBRANCH  14  15
ENDBRANCH  12  14
ENDBRANCH  10  12
ENDBRANCH   4  10
ENDBRANCH   3   4
ENDBRANCH   1   3
TORSDOF 6
