REMARK  4 active torsions:
REMARK  status: ('A' for Active; 'I' for Inactive)
REMARK    1  A    between atoms: C_3  and  C_6 
REMARK    2  A    between atoms: C_4  and  C_8 
REMARK    3  A    between atoms: C_6  and  N_9 
REMARK    4  A    between atoms: C_8  and  N_23 
ROOT
ATOM      1  C   UNL     1       1.317   1.014  -0.459  0.00  0.00    -0.003 A 
ATOM      2  C   UNL     1       0.259   1.013  -1.367  0.00  0.00    -0.003 A 
ATOM      3  C   UNL     1       1.060   1.016   0.912  0.00  0.00     0.008 A 
ATOM      4  C   UNL     1      -1.057   1.012  -0.905  0.00  0.00     0.008 A 
ATOM      5  C   UNL     1      -0.256   1.015   1.375  0.00  0.00    -0.003 A 
ATOM      6  C   UNL     1      -1.314   1.014   0.466  0.00  0.00    -0.003 A 
ENDROOT
BRANCH   3   7
ATOM      7  C   UNL     1       2.203   1.017   1.893  0.00  0.00     0.240 C 
BRANCH   7   8
ATOM      8  N   UNL     1       3.240   0.059   1.521  0.00  0.00    -0.020 N 
ATOM      9  C   UNL     1       2.882  -1.309   1.913  0.00  0.00     0.216 C 
ATOM     10  C   UNL     1       2.391  -2.102   0.692  0.00  0.00     0.065 C 
ATOM     11  C   UNL     1       3.349  -2.101  -0.514  0.00  0.00     0.211 C 
ATOM     12  N   UNL     1       4.686  -2.564  -0.142  0.00  0.00    -0.043 N 
ATOM     13  H   UNL     1       4.603  -3.484   0.289  0.00  0.00     0.279 HD
ATOM     14  H   UNL     1       5.079  -1.876   0.500  0.00  0.00     0.279 HD
ATOM     15  C   UNL     1       5.597  -2.664  -1.286  0.00  0.00     0.241 C 
ATOM     16  C   UNL     1       6.037  -1.324  -1.892  0.00  0.00     0.241 C 
ATOM     17  N   UNL     1       6.770  -0.497  -0.927  0.00  0.00    -0.043 N 
ATOM     18  H   UNL     1       6.144  -0.243  -0.163  0.00  0.00     0.279 HD
ATOM     19  H   UNL     1       7.563  -1.033  -0.574  0.00  0.00     0.279 HD
ATOM     20  C   UNL     1       7.274   0.723  -1.562  0.00  0.00     0.211 C 
ATOM     21  C   UNL     1       8.092   1.599  -0.603  0.00  0.00     0.064 C 
ATOM     22  C   UNL     1       7.290   2.451   0.392  0.00  0.00     0.211 C 
ATOM     23  N   UNL     1       6.597   1.654   1.400  0.00  0.00    -0.043 N 
ATOM     24  C   UNL     1       5.157   1.568   1.143  0.00  0.00     0.242 C 
ATOM     25  H   UNL     1       6.987   0.711   1.399  0.00  0.00     0.279 HD
ATOM     26  H   UNL     1       6.727   2.109   2.303  0.00  0.00     0.279 HD
ATOM     27  C   UNL     1       4.570   0.445   2.005  0.00  0.00     0.246 C 
ATOM     28  H   UNL     1       3.296   0.074   0.503  0.00  0.00     0.284 HD
ENDBRANCH   7   8
ENDBRANCH   3   7
BRANCH   4  29
ATOM     29  C   UNL     1      -2.189   1.010  -1.875  0.00  0.00     0.240 C 
BRANCH  29  30
ATOM     30  N   UNL     1      -3.232   0.055  -1.511  0.00  0.00    -0.020 N 
ATOM     31  C   UNL     1      -2.877  -1.314  -1.903  0.00  0.00     0.216 C 
ATOM     32  C   UNL     1      -2.396  -2.111  -0.680  0.00  0.00     0.065 C 
ATOM     33  C   UNL     1      -3.361  -2.107   0.520  0.00  0.00     0.211 C 
ATOM     34  N   UNL     1      -4.698  -2.565   0.140  0.00  0.00    -0.043 N 
ATOM     35  C   UNL     1      -5.615  -2.664   1.278  0.00  0.00     0.241 C 
ATOM     36  H   UNL     1      -4.615  -3.485  -0.292  0.00  0.00     0.279 HD
ATOM     37  H   UNL     1      -5.085  -1.875  -0.504  0.00  0.00     0.279 HD
ATOM     38  C   UNL     1      -6.055  -1.322   1.883  0.00  0.00     0.241 C 
ATOM     39  N   UNL     1      -6.779  -0.492   0.915  0.00  0.00    -0.043 N 
ATOM     40  H   UNL     1      -7.572  -1.024   0.557  0.00  0.00     0.279 HD
ATOM     41  H   UNL     1      -6.148  -0.239   0.155  0.00  0.00     0.279 HD
ATOM     42  C   UNL     1      -7.282   0.730   1.549  0.00  0.00     0.211 C 
ATOM     43  C   UNL     1      -8.091   1.609   0.586  0.00  0.00     0.064 C 
ATOM     44  C   UNL     1      -7.281   2.460  -0.403  0.00  0.00     0.211 C 
ATOM     45  N   UNL     1      -6.584   1.661  -1.408  0.00  0.00    -0.043 N 
ATOM     46  H   UNL     1      -6.707   2.118  -2.311  0.00  0.00     0.279 HD
ATOM     47  H   UNL     1      -6.978   0.721  -1.411  0.00  0.00     0.279 HD
ATOM     48  C   UNL     1      -5.146   1.570  -1.143  0.00  0.00     0.242 C 
ATOM     49  C   UNL     1      -4.558   0.446  -2.003  0.00  0.00     0.246 C 
ATOM     50  H   UNL     1      -3.295   0.069  -0.493  0.00  0.00     0.284 HD
ENDBRANCH  29  30
ENDBRANCH   4  29
TORSDOF 4
