REMARK  Name = 9865528
REMARK  10 active torsions:
REMARK  status: ('A' for Active; 'I' for Inactive)
REMARK    1  A    between atoms: O_2  and  C_11
REMARK    2  A    between atoms: N_4  and  C_8
REMARK    3  A    between atoms: N_4  and  C_9
REMARK    4  A    between atoms: N_5  and  C_16
REMARK    5  A    between atoms: C_8  and  C_10
REMARK    6  A    between atoms: C_9  and  C_11
REMARK    7  A    between atoms: C_10  and  C_12
REMARK    8  A    between atoms: C_11  and  C_13
REMARK    9  A    between atoms: C_24  and  C_25
REMARK   10  A    between atoms: C_25  and  C_26
REMARK                            x       y       z     vdW  Elec       q    Type
REMARK                         _______ _______ _______ _____ _____    ______ ____
ROOT
ATOM     12  C   UNL A   1      -0.197   1.814  -0.333  0.00  0.00    -0.046 A 
ATOM     14  C   UNL A   1       0.664   1.051  -1.122  0.00  0.00    +0.005 A 
ATOM     15  C   UNL A   1       0.253   2.348   0.874  0.00  0.00    +0.005 A 
ATOM     16  C   UNL A   1       2.424   1.355   0.504  0.00  0.00    +0.033 A 
ATOM     17  C   UNL A   1       1.974   0.821  -0.703  0.00  0.00    +0.023 A 
ATOM     18  C   UNL A   1       1.563   2.118   1.293  0.00  0.00    +0.023 A 
ENDROOT
BRANCH  16   5
ATOM      3  O   UNL A   1       4.638  -0.194  -0.801  0.00  0.00    -0.275 OA
ATOM      5  N   UNL A   1       3.735   1.126   0.924  0.00  0.00    -0.285 N 
ATOM     24  C   UNL A   1       4.740   0.391   0.273  0.00  0.00    +0.223 C 
ATOM     31  H   UNL A   1       3.985   1.549   1.815  0.00  0.00    +0.155 HD
BRANCH  24  25
ATOM     25  C   UNL A   1       6.030   0.393   1.082  0.00  0.00    +0.152 C 
BRANCH  25  26
ATOM      1  S   UNL A   1       9.143  -0.988  -1.018  0.00  0.00    -0.061 S 
ATOM      6  N   UNL A   1       7.288  -1.688   0.641  0.00  0.00    -0.230 NA
ATOM      7  N   UNL A   1       8.736  -3.428  -0.042  0.00  0.00    -0.338 N 
ATOM     26  C   UNL A   1       7.141  -0.337   0.396  0.00  0.00    +0.059 A 
ATOM     27  C   UNL A   1       8.053   0.220  -0.476  0.00  0.00    +0.072 A 
ATOM     28  C   UNL A   1       8.312  -2.136  -0.051  0.00  0.00    +0.156 A 
ATOM     32  H   UNL A   1       9.533  -3.733  -0.591  0.00  0.00    +0.144 HD
ATOM     33  H   UNL A   1       8.274  -4.138   0.516  0.00  0.00    +0.144 HD
ENDBRANCH  25  26
ENDBRANCH  24  25
ENDBRANCH  16   5
BRANCH  12  10
ATOM     10  C   UNL A   1      -1.598   2.060  -0.781  0.00  0.00    +0.050 C 
BRANCH  10   8
ATOM      8  C   UNL A   1      -2.564   0.979  -0.277  0.00  0.00    +0.085 C 
BRANCH   8   4
ATOM      4  N   UNL A   1      -3.926   1.217  -0.743  0.00  0.00    -0.313 NA
ATOM     29  H   UNL A   1      -3.945   1.233  -1.762  0.00  0.00    +0.122 HD
BRANCH   4   9
ATOM      9  C   UNL A   1      -4.831   0.189  -0.248  0.00  0.00    +0.117 C 
BRANCH   9  11
ATOM     11  C   UNL A   1      -6.267   0.456  -0.714  0.00  0.00    +0.158 C 
BRANCH  11  13
ATOM     13  C   UNL A   1      -7.220  -0.604  -0.207  0.00  0.00    -0.018 A 
ATOM     19  C   UNL A   1      -7.460  -1.748  -0.969  0.00  0.00    +0.006 A 
ATOM     20  C   UNL A   1      -7.860  -0.438   1.021  0.00  0.00    +0.006 A 
ATOM     21  C   UNL A   1      -8.338  -2.725  -0.503  0.00  0.00    +0.000 A 
ATOM     22  C   UNL A   1      -8.739  -1.416   1.488  0.00  0.00    +0.000 A 
ATOM     23  C   UNL A   1      -8.978  -2.559   0.726  0.00  0.00    +0.000 A 
ENDBRANCH  11  13
BRANCH  11   2
ATOM      2  O   UNL A   1      -6.715   1.724  -0.234  0.00  0.00    -0.386 OA
ATOM     30  H   UNL A   1      -6.077   2.391  -0.539  0.00  0.00    +0.210 HD
ENDBRANCH  11   2
ENDBRANCH   9  11
ENDBRANCH   4   9
ENDBRANCH   8   4
ENDBRANCH  10   8
ENDBRANCH  12  10
TORSDOF 10
