REMARK  3 active torsions:
REMARK  status: ('A' for Active; 'I' for Inactive)
REMARK    1  A    between atoms: C_3  and  C_4 
REMARK    2  A    between atoms: C_3  and  C_2 
REMARK    3  A    between atoms: C_2  and  N_1 
ROOT
ATOM      1  C   UNL     1       0.759   0.388  -0.946  0.00  0.00     0.057 C 
ENDROOT
BRANCH   1   2
ATOM      2  C   UNL     1      -0.657   0.209  -0.452  0.00  0.00    -0.020 A 
ATOM      3  C   UNL     1      -1.258  -1.036  -0.552  0.00  0.00    -0.004 A 
ATOM      4  C   UNL     1      -2.566  -1.201  -0.096  0.00  0.00    -0.000 A 
ATOM      5  C   UNL     1      -3.255  -0.120   0.454  0.00  0.00     0.000 A 
ATOM      6  C   UNL     1      -2.636   1.127   0.547  0.00  0.00    -0.000 A 
ATOM      7  C   UNL     1      -1.328   1.292   0.091  0.00  0.00    -0.004 A 
ENDBRANCH   1   2
BRANCH   1   8
ATOM      8  C   UNL     1       1.826   0.121   0.132  0.00  0.00     0.186 C 
ATOM      9  C   UNL     1       1.776  -1.311   0.664  0.00  0.00     0.032 C 
BRANCH   8  10
ATOM     10  N   UNL     1       3.159   0.358  -0.429  0.00  0.00    -0.045 N 
ATOM     11  C   UNL     1       4.182   0.174   0.587  0.00  0.00     0.241 C 
ATOM     12  H   UNL     1       3.208   1.313  -0.785  0.00  0.00     0.279 HD
ATOM     13  H   UNL     1       3.321  -0.308  -1.184  0.00  0.00     0.279 HD
ENDBRANCH   8  10
ENDBRANCH   1   8
TORSDOF 3
