REMARK  14 active torsions:
REMARK  status: ('A' for Active; 'I' for Inactive)
REMARK    1  A    between atoms: C_22  and  N_23 
REMARK    2  A    between atoms: C_22  and  C_20 
REMARK    3  A    between atoms: C_28  and  O_29 
REMARK    4  A    between atoms: O_29  and  C_30 
REMARK    5  A    between atoms: C_30  and  N_31 
REMARK    6  A    between atoms: N_31  and  C_33 
REMARK    7  A    between atoms: C_35  and  C_38 
REMARK    8  A    between atoms: C_20  and  N_18 
REMARK    9  A    between atoms: C_17  and  N_18 
REMARK   10  A    between atoms: C_17  and  C_16 
REMARK   11  A    between atoms: C_11  and  C_10 
REMARK   12  A    between atoms: C_10  and  N_9 
REMARK   13  A    between atoms: C_3  and  C_2 
REMARK   14  A    between atoms: N_1  and  C_2 
ROOT
ATOM      1  C   UNL     1      -2.256  -3.454  -1.709  0.00  0.00     0.237 C 
ENDROOT
BRANCH   1   2
ATOM      2  N   UNL     1      -2.000  -2.502  -2.787  0.00  0.00    -0.024 N 
ATOM      3  C   UNL     1      -1.879  -1.123  -2.293  0.00  0.00     0.216 C 
ATOM      4  C   UNL     1      -0.570  -0.838  -1.555  0.00  0.00     0.063 C 
ATOM      5  C   UNL     1       0.639  -1.222  -2.404  0.00  0.00     0.130 C 
ATOM      6  C   UNL     1       0.509  -2.657  -2.908  0.00  0.00     0.063 C 
ATOM      7  C   UNL     1      -0.837  -2.882  -3.600  0.00  0.00     0.216 C 
ATOM      8  H   UNL     1      -2.817  -2.533  -3.396  0.00  0.00     0.283 HD
BRANCH   5   9
ATOM      9  O   UNL     1       1.817  -1.088  -1.620  0.00  0.00    -0.287 OA
BRANCH   9  10
ATOM     10  C   UNL     1       2.423   0.145  -1.632  0.00  0.00     0.366 C 
ATOM     11  O   UNL     1       1.994   1.096  -2.274  0.00  0.00    -0.238 OA
BRANCH  10  12
ATOM     12  N   UNL     1       3.543   0.106  -0.825  0.00  0.00    -0.301 N 
ATOM     13  H   UNL     1       3.729  -0.755  -0.386  0.00  0.00     0.171 HD
BRANCH  12  14
ATOM     14  C   UNL     1       4.456   1.150  -0.552  0.00  0.00     0.061 A 
ATOM     15  C   UNL     1       4.246   2.395  -1.145  0.00  0.00     0.017 A 
ATOM     16  C   UNL     1       5.129   3.445  -0.896  0.00  0.00     0.002 A 
ATOM     17  C   UNL     1       6.223   3.251  -0.053  0.00  0.00     0.000 A 
ATOM     18  C   UNL     1       6.434   2.006   0.541  0.00  0.00     0.001 A 
ATOM     19  C   UNL     1       5.550   0.956   0.291  0.00  0.00     0.016 A 
BRANCH  19  20
ATOM     20  C   UNL     1       5.796  -0.326   0.924  0.00  0.00     0.001 A 
ATOM     21  C   UNL     1       6.584  -1.281   0.281  0.00  0.00     0.000 A 
ATOM     22  C   UNL     1       6.820  -2.514   0.889  0.00  0.00     0.000 A 
ATOM     23  C   UNL     1       6.269  -2.792   2.139  0.00  0.00     0.000 A 
ATOM     24  C   UNL     1       5.482  -1.837   2.782  0.00  0.00     0.000 A 
ATOM     25  C   UNL     1       5.245  -0.604   2.175  0.00  0.00     0.000 A 
ENDBRANCH  19  20
ENDBRANCH  12  14
ENDBRANCH  10  12
ENDBRANCH   9  10
ENDBRANCH   5   9
ENDBRANCH   1   2
BRANCH   1  26
ATOM     26  C   UNL     1      -3.722  -3.410  -1.302  0.00  0.00     0.137 C 
BRANCH  26  27
ATOM     27  N   UNL     1      -3.998  -4.350  -0.217  0.00  0.00    -0.313 N 
ATOM     28  C   UNL     1      -4.389  -5.690  -0.628  0.00  0.00     0.129 C 
BRANCH  27  29
ATOM     29  C   UNL     1      -3.892  -3.982   1.137  0.00  0.00     0.257 C 
ATOM     30  O   UNL     1      -4.117  -4.748   2.083  0.00  0.00    -0.267 OA
BRANCH  29  31
ATOM     31  C   UNL     1      -3.479  -2.628   1.468  0.00  0.00     0.056 A 
ATOM     32  C   UNL     1      -2.126  -2.332   1.635  0.00  0.00     0.004 A 
ATOM     33  C   UNL     1      -1.730  -1.033   1.954  0.00  0.00    -0.002 A 
ATOM     34  C   UNL     1      -2.688  -0.030   2.107  0.00  0.00     0.008 A 
ATOM     35  C   UNL     1      -4.040  -0.326   1.941  0.00  0.00    -0.002 A 
ATOM     36  C   UNL     1      -4.436  -1.624   1.622  0.00  0.00     0.004 A 
BRANCH  34  37
ATOM     37  C   UNL     1      -2.259   1.371   2.452  0.00  0.00     0.239 C 
BRANCH  37  38
ATOM     38  N   UNL     1      -2.953   2.369   1.638  0.00  0.00    -0.022 N 
ATOM     39  C   UNL     1      -2.896   3.688   2.283  0.00  0.00     0.214 C 
ATOM     40  C   UNL     1      -3.664   4.732   1.470  0.00  0.00     0.042 C 
ATOM     41  C   UNL     1      -3.148   4.806   0.034  0.00  0.00     0.082 C 
ATOM     42  C   UNL     1      -3.131   3.415  -0.597  0.00  0.00     0.042 C 
ATOM     43  C   UNL     1      -2.381   2.415   0.285  0.00  0.00     0.214 C 
ATOM     44  H   UNL     1      -3.933   2.101   1.557  0.00  0.00     0.283 HD
BRANCH  41  45
ATOM     45  C   UNL     1      -4.013   5.717  -0.781  0.00  0.00     0.227 C 
ATOM     46  O   UNL     1      -5.211   5.859  -0.550  0.00  0.00    -0.273 OA
BRANCH  45  47
ATOM     47  N   UNL     1      -3.345   6.348  -1.803  0.00  0.00    -0.369 N 
ATOM     48  H   UNL     1      -3.826   6.969  -2.397  0.00  0.00     0.159 HD
ATOM     49  H   UNL     1      -2.385   6.180  -1.941  0.00  0.00     0.159 HD
ENDBRANCH  45  47
ENDBRANCH  41  45
ENDBRANCH  37  38
ENDBRANCH  34  37
ENDBRANCH  29  31
ENDBRANCH  27  29
ENDBRANCH  26  27
ENDBRANCH   1  26
TORSDOF 11
