REMARK  6 active torsions:
REMARK  status: ('A' for Active; 'I' for Inactive)
REMARK    1  A    between atoms: C_1  and  O_2 
REMARK    2  A    between atoms: C_6  and  P_7 
REMARK    3  A    between atoms: P_7  and  O_9 
REMARK    4  A    between atoms: P_7  and  O_11 
REMARK    5  A    between atoms: C_14  and  N_15 
REMARK    6  A    between atoms: N_15  and  C_16 
ROOT
HETATM    1  C   UNK     0      -2.033   1.871   0.030  0.00  0.00     0.092 A 
HETATM    2  C   UNK     0      -0.879   2.611  -0.171  0.00  0.00     0.040 A 
HETATM    3  C   UNK     0       0.352   1.982  -0.189  0.00  0.00     0.022 A 
HETATM    4  C   UNK     0       0.436   0.614  -0.005  0.00  0.00     0.052 A 
HETATM    5  C   UNK     0      -0.711  -0.131   0.197  0.00  0.00     0.052 A 
HETATM    6  C   UNK     0      -1.949   0.494   0.221  0.00  0.00     0.069 A 
ENDROOT
BRANCH   1   7
HETATM    7  O   UNK     0      -3.244   2.489   0.046  0.00  0.00    -0.358 OA
HETATM    8  H   UNK     0      -3.669   2.546  -0.821  0.00  0.00     0.218 HD
ENDBRANCH   1   7
BRANCH   6   9
HETATM    9  N   UNK     0      -3.112  -0.260   0.425  0.00  0.00    -0.325 N 
HETATM   10  H   UNK     0      -3.854   0.119   0.922  0.00  0.00     0.169 HD
BRANCH   9  11
HETATM   11  C   UNK     0      -3.200  -1.511  -0.068  0.00  0.00     0.218 C 
HETATM   12  C   UNK     0      -4.487  -2.284   0.065  0.00  0.00     0.117 C 
HETATM   13  O   UNK     0      -2.244  -2.014  -0.619  0.00  0.00    -0.274 OA
ENDBRANCH   9  11
ENDBRANCH   6   9
BRANCH   4  14
HETATM   14  P   UNK     0       2.212  -0.283  -0.031  0.00  0.00     0.271 P 
HETATM   15  O   UNK     0       2.557  -0.727  -1.512  0.00  0.00    -0.650 OA
BRANCH  14  16
HETATM   16  O   UNK     0       3.498   0.884   0.575  0.00  0.00    -0.326 OA
HETATM   17  H   UNK     0       4.391   0.513   0.589  0.00  0.00     0.220 HD
ENDBRANCH  14  16
BRANCH  14  18
HETATM   18  O   UNK     0       2.166  -1.766   1.058  0.00  0.00    -0.326 OA
HETATM   19  H   UNK     0       1.959  -1.568   1.982  0.00  0.00     0.220 HD
ENDBRANCH  14  18
ENDBRANCH   4  14
TORSDOF 5
