REMARK  6 active torsions:
REMARK  status: ('A' for Active; 'I' for Inactive)
REMARK    1  A    between atoms: C_9  and  O_7 
REMARK    2  A    between atoms: C_14  and  N_15 
REMARK    3  A    between atoms: N_15  and  C_17 
REMARK    4  A    between atoms: C_17  and  C_18 
REMARK    5  A    between atoms: O_7  and  C_6 
REMARK    6  A    between atoms: C_6  and  C_4 
ROOT
ATOM      1  C   UNL     1       0.902   0.216   0.461  0.00  0.00     0.103 A 
ATOM      2  C   UNL     1       0.342  -1.002   0.848  0.00  0.00     0.026 A 
ATOM      3  C   UNL     1       0.097   1.203  -0.108  0.00  0.00     0.026 A 
ATOM      4  C   UNL     1      -1.021  -1.233   0.666  0.00  0.00     0.019 A 
ATOM      5  C   UNL     1      -1.267   0.972  -0.290  0.00  0.00     0.019 A 
ATOM      6  C   UNL     1      -1.826  -0.245   0.097  0.00  0.00     0.063 A 
ENDROOT
BRANCH   1   7
ATOM      7  O   UNL     1       2.232   0.441   0.640  0.00  0.00    -0.272 OA
BRANCH   7   8
ATOM      8  C   UNL     1       3.055   0.065  -0.442  0.00  0.00     0.323 C 
ATOM      9  O   UNL     1       2.618  -0.430  -1.477  0.00  0.00    -0.257 OA
BRANCH   8  10
ATOM     10  C   UNL     1       4.468   0.338  -0.174  0.00  0.00     0.163 A 
ATOM     11  O   UNL     1       5.331   0.014  -1.148  0.00  0.00    -0.300 OA
ATOM     12  C   UNL     1       6.553   0.359  -0.665  0.00  0.00     0.123 A 
ATOM     13  C   UNL     1       6.442   0.892   0.598  0.00  0.00     0.029 A 
ATOM     14  C   UNL     1       5.062   0.873   0.912  0.00  0.00     0.032 A 
ENDBRANCH   8  10
ENDBRANCH   7   8
ENDBRANCH   1   7
BRANCH   6  15
ATOM     15  N   UNL     1      -3.189  -0.477  -0.086  0.00  0.00    -0.295 N 
ATOM     16  C   UNL     1      -3.716  -1.855  -0.330  0.00  0.00     0.134 C 
BRANCH  15  17
ATOM     17  C   UNL     1      -4.141   0.601  -0.047  0.00  0.00     0.268 C 
ATOM     18  O   UNL     1      -3.806   1.774   0.148  0.00  0.00    -0.269 OA
BRANCH  17  19
ATOM     19  C   UNL     1      -5.604   0.269  -0.286  0.00  0.00     0.237 C 
ATOM     20 CL   UNL     1      -6.534   0.849   1.105  0.00  0.00    -0.087 Cl
ATOM     21 CL   UNL     1      -6.128   1.101  -1.771  0.00  0.00    -0.087 Cl
ENDBRANCH  17  19
ENDBRANCH  15  17
ENDBRANCH   6  15
TORSDOF 5
